
**** 01/31/18 08:30:17 ******* PSpice Lite (March 2016) ******* ID# 10813 ****

 ** Profile: "SCHEMATIC1-387ZFC_Sim"  [ C:\Users\brant\Desktop\School\Sem 7\ENEL 387\Project\Sims\387ZFC_Sim-PSpiceFiles\SCHEMATIC1\3


 ****     CIRCUIT DESCRIPTION


******************************************************************************




** Creating circuit file "387ZFC_Sim.cir" 
** WARNING: THIS AUTOMATICALLY GENERATED FILE MAY BE OVERWRITTEN BY SUBSEQUENT SIMULATIONS

*Libraries: 
* Profile Libraries :
* Local Libraries :
* From [PSPICE NETLIST] section of C:\Users\brant\AppData\Roaming\SPB_Data\cdssetup\OrCAD_PSpice\17.2.0\PSpice.ini file:
.lib "nomd.lib" 

*Analysis directives: 
.TRAN  0 100mS 0 
.OPTIONS ADVCONV
.PROBE64 V(alias(*)) I(alias(*)) W(alias(*)) D(alias(*)) NOISE(alias(*)) 
.INC "..\SCHEMATIC1.net" 



**** INCLUDING SCHEMATIC1.net ****
* source 387ZFC_SIM
V_V1         N00116 0  
+SIN 0 14.14 60 0 0 0
R_R1         0 N00141  1M TC=0,0 
E_U2         N00141 0 VALUE {LIMIT(V(N00116,0)*1E6,-15V,+15V)}

**** RESUMING 387ZFC_Sim.cir ****
.END

**** 01/31/18 08:30:17 ******* PSpice Lite (March 2016) ******* ID# 10813 ****

 ** Profile: "SCHEMATIC1-387ZFC_Sim"  [ C:\Users\brant\Desktop\School\Sem 7\ENEL 387\Project\Sims\387ZFC_Sim-PSpiceFiles\SCHEMATIC1\3


 ****     INITIAL TRANSIENT SOLUTION       TEMPERATURE =   27.000 DEG C


******************************************************************************



 NODE   VOLTAGE     NODE   VOLTAGE     NODE   VOLTAGE     NODE   VOLTAGE


(N00116)    0.0000 (N00141)    0.0000 




    VOLTAGE SOURCE CURRENTS
    NAME         CURRENT

    V_V1         0.000E+00

    TOTAL POWER DISSIPATION   0.00E+00  WATTS



          JOB CONCLUDED

**** 01/31/18 08:30:17 ******* PSpice Lite (March 2016) ******* ID# 10813 ****

 ** Profile: "SCHEMATIC1-387ZFC_Sim"  [ C:\Users\brant\Desktop\School\Sem 7\ENEL 387\Project\Sims\387ZFC_Sim-PSpiceFiles\SCHEMATIC1\3


 ****     JOB STATISTICS SUMMARY


******************************************************************************



  Total job time (using Solver 1)   =         .02
